Simulation
  Timestep intervals(1) = 25
  Timestep Sizes(2) = 0 0.5
  Timestepping Method = BDF
  BDF Order = 2
  Frequency = 2
End

Body 1
  Target Bodies(1) = 1
  Equation = 1
  Material = 1
  Body Force = 1
End

Solver 1
  Equation = Hyperbolic Equation
  Solution Mode = Harmonic
  Basis = Linear
  Nonlinear System Convergence Tolerance = 1.0e-7
  Nonlinear System Max Iterations = 20
  Linear System Iterative Method = BiCGStab
  Linear System Max Iterations = 500
  Linear System Convergence Tolerance = 1.0e-14
End

Material 1
  Sigma Coefficient = 2
  Gamma Coefficient = 0
  Chi Coefficient = 1
  Lambda Coefficient = 1
End

Body Force 1
  Field Source = ssrc,csrc
End

Boundary Condition 1
  Target Boundaries(1) = 1 
  Field Flux (theta) = sneu1,cneu1
End

Boundary Condition 2
  Target Boundaries(1) = 4 
  Field Flux (theta) = sneu2,cneu2
End

Boundary Condition 3
  Target Boundaries(1) = 6 
  Field Flux (theta) = sneu3,cneu3
End

Boundary Condition 4
  Target Boundaries(1) = 2 
  Robin Coefficient (beta) = 10
  External Field = srob1,crob1
End

Boundary Condition 5
  Target Boundaries(1) = 3 
  External Field = srob2,crob2
  Robin Coefficient (beta) = 10
End

Boundary Condition 6
  Target Boundaries(1) = 5 
  External Field = srob3,crob3
  Robin Coefficient (beta) = 10
End
