Body 1
  Target Bodies(1) = 1
  Equation = 1
  Material = 1
  Body Force = 1
End

Solver 1
  Equation = Elliptic Equation
  Basis = Linear
  Solution Mode = Standard
  Nonlinear System Convergence Tolerance = 1.0e-7
  Nonlinear System Max Iterations = 20
  Linear System Iterative Method = BiCGStab
  Linear System Max Iterations = 500
  Linear System Convergence Tolerance = 1.0e-10
End

Material 1
  Lambda Coefficient = 5
  Gamma Coefficient = 0.4
End

Body Force 1
  Field Source = source
End

Boundary Condition 1
  Target Boundaries(1) = 1 
  Field Flux (theta) = neu1
End

Boundary Condition 2
  Target Boundaries(1) = 4 
  Field Flux (theta) = neu2
End

Boundary Condition 3
  Target Boundaries(1) = 6 
  Field Flux (theta) = neu3
End

Boundary Condition 4
  Target Boundaries(1) = 2 
  Robin Coefficient (beta) = 10
  External Field = rob1
End

Boundary Condition 5
  Target Boundaries(1) = 3 
  External Field = rob2
  Robin Coefficient (beta) = 10
End

Boundary Condition 6
  Target Boundaries(1) = 5 
  Robin Coefficient (beta) = 10
  External Field = rob3
End
