Header
  CHECK KEYWORDS Warn
  Mesh DB "/home/paraskun/x86/numx/pde/test/non/case1" "elm"
  Include Path "/home/paraskun/x86/numx/pde/test/non/case1"
  Results Directory "/home/paraskun/x86/numx/pde/test/non/case1/res"
End

Simulation
  Max Output Level = 5
  Coordinate System = Cartesian
  Coordinate Mapping(3) = 1 2 3
  Simulation Type = Steady state
  Steady State Max Iterations = 1
  Output Intervals(1) = 1
  Solver Input File = case.sif
  Post File = case.cgns
End

Constants
  Gravity(4) = 0 -1 0 9.82
  Stefan Boltzmann = 5.670374419e-08
  Permittivity of Vacuum = 8.85418781e-12
  Permeability of Vacuum = 1.25663706e-6
  Boltzmann Constant = 1.380649e-23
  Unit Charge = 1.6021766e-19
End

Body 1
  Target Bodies(1) = 1
  Name = "Body 1"
  Equation = 1
  Material = 1
  Body Force = 1
End

Solver 1
  Equation = Elliptic Equation
  Basis = Linear
  Solution Mode = Standard
  Exec Solver = Always
  Stabilize = True
  Optimize Bandwidth = True
  Steady State Convergence Tolerance = 1.0e-5
  Nonlinear System Convergence Tolerance = 1.0e-7
  Nonlinear System Max Iterations = 20
  Nonlinear System Newton After Iterations = 3
  Nonlinear System Newton After Tolerance = 1.0e-3
  Nonlinear System Relaxation Factor = 1
  Linear System Solver = Iterative
  Linear System Iterative Method = BiCGStab
  Linear System Max Iterations = 500
  Linear System Convergence Tolerance = 1.0e-10
  BiCGstabl polynomial degree = 2
  Linear System Preconditioning = ILU0
  Linear System ILUT Tolerance = 1.0e-3
  Linear System Abort Not Converged = False
  Linear System Residual Output = 10
  Linear System Precondition Recompute = 1
End

Equation 1
  Name = "Equation 1"
  Active Solvers(1) = 1
End

Material 1
  Name = "Material 1"
  Gamma Coefficient = 0.4
  Lambda Coefficient = lam;dlam
End

Body Force 1
  Name = "BodyForce 1"
  Field Source = source
End

Boundary Condition 1
  Target Boundaries(1) = 1 
  Name = "BoundaryCondition 1"
  Field Flux (theta) = neu1
End

Boundary Condition 2
  Target Boundaries(1) = 4 
  Name = "BoundaryCondition 2"
  Field Flux (theta) = neu2
End

Boundary Condition 3
  Target Boundaries(1) = 6 
  Name = "BoundaryCondition 3"
  Field Flux (theta) = neu3
End

Boundary Condition 4
  Target Boundaries(1) = 2 
  Name = "BoundaryCondition 4"
  External Field = rob1
  Robin Coefficient (beta) = 10
End

Boundary Condition 5
  Target Boundaries(1) = 3 
  Name = "BoundaryCondition 5"
  External Field = rob2
  Robin Coefficient (beta) = 10
End

Boundary Condition 6
  Target Boundaries(1) = 5 
  Name = "BoundaryCondition 6"
  Robin Coefficient (beta) = 10
  External Field = rob3
End
